! Solo baseado nos dados obtidos em Exp_Feijao_2014
*SOILS

*GOST000001  CNPAF          C    100 Latossolo V. Distrofico(2014)
@SITE        COUNTRY          LAT     LONG SCS FAMILY
 St.Antonio  Brazil        -16.500 -49.300
@ SCOM  SALB  SLU1  SLDR  SLRO  SLNF  SLPF  SMHB  SMPX  SMKE
     R  0.14   6.0  0.30  83.0  1.00  0.90  IB00  IB00  IB00
@  SLB  SLMH  SLLL  SDUL  SSAT  SRGF  SSKS  SBDM  SLOC  SLCL  SLSI  SLCF  SLNI  SLHW  SLHB  SCEC  SADC
    10     A 0.312 0.405 0.454 1.000  0.10  1.50  2.00  46.9  15.1   0.0 0.100   4.7   -99  -99   -99 
    20    AA 0.307 0.374 0.429 0.800  0.10  1.51  1.70  46.9  15.1   0.0 0.100   4.7   -99  -99   -99 
    30    AA 0.344 0.419 0.451 0.600  0.10  1.53  1.40  46.9  15.1   0.0 0.100   4.7   -99  -99   -99 
    40    AA 0.297 0.391 0.434 0.300  0.10  1.42  1.40  46.9  15.1   0.0 0.100   4.7   -99  -99   -99 
    50    AA 0.297 0.391 0.434 0.100  0.10  1.42  1.40  46.9  15.1   0.0 0.100   4.7   -99  -99   -99 
    60    AA 0.297 0.391 0.434 0.000  0.10  1.42  1.40  46.9  15.1   0.0 0.100   4.7   -99  -99   -99 
    70    AA 0.297 0.391 0.434 0.000  0.10  1.42  1.40  46.9  15.1   0.0 0.100   4.7   -99  -99   -99 
    80    AA 0.297 0.391 0.434 0.000  0.10  1.42  1.40  46.9  15.1   0.0 0.100   4.7   -99  -99   -99 
    90    AA 0.297 0.391 0.434 0.000  0.10  1.42  1.40  46.9  15.1   0.0 0.100   4.7   -99  -99   -99

*GOST000002  CNPAF          C    100 Latossolo V. Distrofico(2015)
@SITE        COUNTRY          LAT     LONG SCS FAMILY
 St.Antonio  Brazil        -16.500 -49.300
@ SCOM  SALB  SLU1  SLDR  SLRO  SLNF  SLPF  SMHB  SMPX  SMKE
     R  0.14   6.0  0.30  83.0  1.00  0.90  IB00  IB00  IB00
@  SLB  SLMH  SLLL  SDUL  SSAT  SRGF  SSKS  SBDM  SLOC  SLCL  SLSI  SLCF  SLNI  SLHW  SLHB  SCEC  SADC
    10     A 0.283 0.377 0.460 1.000  0.10  1.76  1.67  41.1  26.3   0.0 0.100   5.0   -99  10.0   -99 
    20    AA 0.292 0.387 0.440 0.800  0.10  1.88  1.23  45.2  23.0   0.0 0.100   5.0   -99   9.0   -99 
    30    AB 0.286 0.380 0.450 0.600  0.10  1.85  1.06  43.2  25.8   0.0 0.100   5.0   -99   8.0   -99
    40    AB 0.299 0.398 0.460 0.300  0.10  1.82  0.87  45.4  23.5   0.0 0.100   5.0   -99   8.0   -99
    50    AB 0.299 0.398 0.460 0.100  0.10  1.82  0.87  45.4  23.5   0.0 0.100   5.0   -99   8.0   -99
    60    AB 0.299 0.398 0.460 0.000  0.10  1.82  0.87  45.4  23.5   0.0 0.100   5.0   -99   8.0   -99
    70    AB 0.299 0.398 0.460 0.000  0.10  1.82  0.87  45.4  23.5   0.0 0.100   5.0   -99   8.0   -99
    80    AB 0.299 0.398 0.460 0.000  0.10  1.82  0.87  45.4  23.5   0.0 0.100   5.0   -99   8.0   -99
    90    AB 0.299 0.398 0.460 0.000  0.10  1.82  0.87  45.4  23.5   0.0 0.100   5.0   -99   8.0   -99

*GOST000003  CNPAF          C    100 Latossolo V. Distrofico(2016)
@SITE        COUNTRY          LAT     LONG SCS FAMILY
 St.Antonio  Brazil        -16.500 -49.300
@ SCOM  SALB  SLU1  SLDR  SLRO  SLNF  SLPF  SMHB  SMPX  SMKE
     R  0.14   6.0  0.30  83.0  1.00  0.90  IB00  IB00  IB00
@  SLB  SLMH  SLLL  SDUL  SSAT  SRGF  SSKS  SBDM  SLOC  SLCL  SLSI  SLCF  SLNI  SLHW  SLHB  SCEC  SADC
    10     A 0.274 0.391 0.502 1.000  0.10  1.29  1.88  48.3  17.4   0.0 0.100   5.0   -99  10.0   -99 
    20    AA 0.262 0.375 0.458 0.800  0.10  1.36  1.88  48.1  17.4   0.0 0.100   5.0   -99   9.0   -99 
    30    AB 0.244 0.356 0.462 0.600  0.10  1.32  1.88  47.5  17.6   0.0 0.100   5.0   -99   8.0   -99
    40    AB 0.243 0.362 0.453 0.300  0.10  1.31  1.88  48.8  17.9   0.0 0.100   5.0   -99   8.0   -99
    50    AB 0.243 0.362 0.453 0.100  0.10  1.31  1.88  48.8  17.9   0.0 0.100   5.0   -99   8.0   -99
    60    AB 0.243 0.362 0.453 0.000  0.10  1.31  1.88  48.8  17.9   0.0 0.100   5.0   -99   8.0   -99
    70    AB 0.243 0.362 0.453 0.000  0.10  1.31  1.88  48.8  17.9   0.0 0.100   5.0   -99   8.0   -99
    80    AB 0.243 0.362 0.453 0.000  0.10  1.31  1.88  48.8  17.9   0.0 0.100   5.0   -99   8.0   -99
    90    AB 0.243 0.362 0.453 0.000  0.10  1.31  1.88  48.8  17.9   0.0 0.100   5.0   -99   8.0   -99

*GOST000004  CNPAF          C    100 Latossolo V. Distrofico(2016_2017)
@SITE        COUNTRY          LAT     LONG SCS FAMILY
 St.Antonio  Brazil        -16.500 -49.300
@ SCOM  SALB  SLU1  SLDR  SLRO  SLNF  SLPF  SMHB  SMPX  SMKE
     R  0.14   6.0  0.30  83.0  1.00  0.90  IB00  IB00  IB00
@  SLB  SLMH  SLLL  SDUL  SSAT  SRGF  SSKS  SBDM  SLOC  SLCL  SLSI  SLCF  SLNI  SLHW  SLHB  SCEC  SADC
    10     A 0.282 0.372 0.456 1.000  0.10  1.27  2.78  46.3  29.1   0.0 0.100   5.0   -99  10.0   -99 
    20    AA 0.305 0.391 0.437 0.800  0.10  1.42  2.78  46.3  29.1   0.0 0.100   5.0   -99   9.0   -99 
    30    AB 0.301 0.388 0.431 0.600  0.10  1.39  2.78  46.3  29.1   0.0 0.100   5.0   -99   8.0   -99
    40    AB 0.307 0.386 0.445 0.300  0.10  1.37  2.78  46.3  29.1   0.0 0.100   5.0   -99   8.0   -99
    50    AB 0.307 0.386 0.445 0.100  0.10  1.37  2.78  46.3  29.1   0.0 0.100   5.0   -99   8.0   -99
    60    AB 0.307 0.386 0.445 0.000  0.10  1.37  2.78  46.3  29.1   0.0 0.100   5.0   -99   8.0   -99
    70    AB 0.307 0.386 0.445 0.000  0.10  1.37  2.78  46.3  29.1   0.0 0.100   5.0   -99   8.0   -99
    80    AB 0.307 0.386 0.445 0.000  0.10  1.37  2.78  46.3  29.1   0.0 0.100   5.0   -99   8.0   -99
    90    AB 0.307 0.386 0.445 0.000  0.10  1.37  2.78  46.3  29.1   0.0 0.100   5.0   -99   8.0   -99

*GOST000005  CNPAF          C    100 Latossolo V. Distrofico(2017)
@SITE        COUNTRY          LAT     LONG SCS FAMILY
 Morrinhos   Brazil        -17.430 -49.050
@ SCOM  SALB  SLU1  SLDR  SLRO  SLNF  SLPF  SMHB  SMPX  SMKE
     R  0.14   6.0  0.30  83.0  1.00  0.90  IB00  IB00  IB00
@  SLB  SLMH  SLLL  SDUL  SSAT  SRGF  SSKS  SBDM  SLOC  SLCL  SLSI  SLCF  SLNI  SLHW  SLHB  SCEC  SADC
    10     A 0.272 0.393 0.482 1.000  0.10  1.18  1.26  53.3  15.7   0.0 0.100   5.0   -99  10.0   -99 
    20    AA 0.259 0.395 0.452 0.800  0.10  1.18  1.26  53.3  15.7   0.0 0.100   5.0   -99   9.0   -99 
    30    AB 0.258 0.371 0.467 0.600  0.10  1.24  1.26  53.3  15.7   0.0 0.100   5.0   -99   8.0   -99
    40    AB 0.243 0.347 0.458 0.300  0.10  1.18  1.26  53.3  15.7   0.0 0.100   5.0   -99   8.0   -99
    50    AB 0.243 0.347 0.458 0.100  0.10  1.18  1.26  53.3  15.7   0.0 0.100   5.0   -99   8.0   -99
    60    AB 0.243 0.347 0.458 0.000  0.10  1.18  1.26  53.3  15.7   0.0 0.100   5.0   -99   8.0   -99
    70    AB 0.243 0.347 0.458 0.000  0.10  1.18  1.26  53.3  15.7   0.0 0.100   5.0   -99   8.0   -99
    80    AB 0.243 0.347 0.458 0.000  0.10  1.18  1.26  53.3  15.7   0.0 0.100   5.0   -99   8.0   -99
    90    AB 0.243 0.347 0.458 0.000  0.10  1.18  1.26  53.3  15.7   0.0 0.100   5.0   -99   8.0   -99

*GOST000008  CNPAF          C    100 ARGISSOLO TESE
@SITE        COUNTRY          LAT     LONG SCS FAMILY
 RS          Brazil            -99     -99 -99
@ SCOM  SALB  SLU1  SLDR  SLRO  SLNF  SLPF  SMHB  SMPX  SMKE
     R  0.14   6.0  0.30  83.0  1.00  0.90  IB00  IB00  IB00
@  SLB  SLMH  SLLL  SDUL  SSAT  SRGF  SSKS  SBDM  SLOC  SLCL  SLSI  SLCF  SLNI  SLHW  SLHB  SCEC  SADC
    06   -99 0.147 0.201 0.418   1.0  7.56 1.505   -99 17.98 27.68   0.0   0.1   4.7   -99   -99   -99
    11   -99 0.150 0.203 0.416   0.9  5.07 1.508   -99 17.98 27.15   0.0   0.1   4.7   -99   -99   -99
    21   -99 0.169 0.223 0.375   0.8  2.25 1.610   -99 19.65 26.55   0.0   0.1   4.7   -99   -99   -99
    31   -99 0.182 0.223 0.400   0.6  3.76 1.550   -99 23.80 26.35   0.0   0.1   4.7   -99   -99   -99
    41   -99 0.176 0.221 0.389   0.3  4.03 1.588   -99 26.53 24.88   0.0   0.1   4.7   -99   -99   -99
    51   -99 0.180 0.220 0.390   0.1  3.10 1.585   -99 30.03 23.88   0.0   0.1   4.7   -99   -99   -99
    71   -99 0.197 0.236 0.394   0.0  1.60 1.565   -99 36.25 24.60   0.0   0.1   4.7   -99   -99   -99
    91   -99 0.237 0.275 0.417   0.0   -99 1.515   -99 46.10 20.95   0.0   0.1   4.7   -99   -99   -99
   111   -99 0.259 0.294 0.417   0.0   -99 1.505   -99 50.00 19.47   0.0   0.1   4.7   -99   -99   -99

*GOST000009  CNPAF          C    100 CAMBISSOLO TESE
@SITE        COUNTRY          LAT     LONG SCS FAMILY
 SP          Brazil            -99     -99 -99
@ SCOM  SALB  SLU1  SLDR  SLRO  SLNF  SLPF  SMHB  SMPX  SMKE
     R  0.14   6.0  0.30  83.0  1.00  0.90  IB00  IB00  IB00
@  SLB  SLMH  SLLL  SDUL  SSAT  SRGF  SSKS  SBDM  SLOC  SLCL  SLSI  SLCF  SLNI  SLHW  SLHB  SCEC  SADC
    10   -99 0.127 0.287 0.530   1.0   -99  1.06  3.01 37.84 6.080   0.0   0.1   4.7   -99   -99   -99
    18   -99 0.127 0.287 0.530   0.8   -99  1.06  3.01 37.84 6.080   0.0   0.1   4.7   -99   -99   -99
    30   -99 0.127 0.287 0.530   0.6   -99  1.06  3.01 37.84 6.080   0.0   0.1   4.7   -99   -99   -99
    40   -99 0.178 0.302 0.452   0.3   -99  1.40  0.58 32.83 15.28   0.0   0.1   4.7   -99   -99   -99
    50   -99 0.178 0.302 0.452   0.1   -99  1.40  0.58 32.83 15.28   0.0   0.1   4.7   -99   -99   -99
    66   -99 0.178 0.302 0.452   0.0  1.28  1.40  0.58 32.83 15.28   0.0   0.1   4.7   -99   -99   -99
    75   -99 0.197 0.299 0.438   0.0   -99  1.40  0.58 38.07 14.06   0.0   0.1   4.7   -99   -99   -99
    85   -99 0.197 0.299 0.438   0.0  2.09  1.40  0.58 38.07 14.06   0.0   0.1   4.7   -99   -99   -99
   110   -99 0.244 0.365 0.473   0.0  0.14  1.41  0.31 45.87 13.20   0.0   0.1   4.7   -99   -99   -99

*GOST000010  CNPAF          C    100 LATOSSOLO TESE
@SITE        COUNTRY          LAT     LONG SCS FAMILY
 SP          Brazil            -99     -99 -99
@ SCOM  SALB  SLU1  SLDR  SLRO  SLNF  SLPF  SMHB  SMPX  SMKE
     R  0.14   6.0  0.30  83.0  1.00  0.90  IB00  IB00  IB00
@  SLB  SLMH  SLLL  SDUL  SSAT  SRGF  SSKS  SBDM  SLOC  SLCL  SLSI  SLCF  SLNI  SLHW  SLHB  SCEC  SADC
    14   -99 0.296 0.345 0.570  0.90   -99  1.28  1.85 57.55 16.65   0.0   0.1   4.7   -99   -99   -99
    28   -99 0.296 0.345 0.570  0.75   -99  1.28  1.85 57.55 16.65   0.0   0.1   4.7   -99   -99   -99
    36   -99 0.279 0.328 0.570  0.50   -99  1.22  1.38 58.80 19.00   0.0   0.1   4.7   -99   -99   -99
    48   -99 0.279 0.328 0.570  0.15   -99  1.22  1.38 58.80 19.00   0.0   0.1   4.7   -99   -99   -99
    67   -99 0.272 0.320 0.589  0.00   -99  1.19  0.88 67.55 11.60   0.0   0.1   4.7   -99   -99   -99
    86   -99 0.272 0.320 0.589  0.00   -99  1.19  0.88 67.55 11.60   0.0   0.1   4.7   -99   -99   -99
   112   -99 0.262 0.307 0.596  0.00   -99  1.14  0.79 66.30 13.00   0.0   0.1   4.7   -99   -99   -99
   150   -99 0.262 0.307 0.596  0.00   -99  1.14  0.79 66.30 13.00   0.0   0.1   4.7   -99   -99   -99
   200   -99 0.257 0.313 0.628  0.00   -99  1.29  0.53 66.30 12.10   0.0   0.1   4.7   -99   -99   -99

*GOST000011  CNPAF          C    100 NEOSSOLO TESE
@SITE        COUNTRY          LAT     LONG SCS FAMILY
 SP          Brazil            -99     -99 -99
@ SCOM  SALB  SLU1  SLDR  SLRO  SLNF  SLPF  SMHB  SMPX  SMKE
     R  0.14   6.0  0.30  83.0  1.00  0.90  IB00  IB00  IB00
@  SLB  SLMH  SLLL  SDUL  SSAT  SRGF  SSKS  SBDM  SLOC  SLCL  SLSI  SLCF  SLNI  SLHW  SLHB  SCEC  SADC
    08   -99 0.092 0.190 0.326  1.00   -99  1.57  0.79  7.05 12.73   0.0   0.1   4.7   -99   -99   -99
    15   -99 0.096 0.176 0.311  0.90   -99  1.65  0.77 10.60  9.58   0.0   0.1   4.7   -99   -99   -99
    23   -99 0.113 0.183 0.345  0.80   -99  1.59  0.69 17.18  5.54   0.0   0.1   4.7   -99   -99   -99
    30   -99 0.103 0.193 0.359  0.60   -99  1.53  0.60 17.85 13.75   0.0   0.1   4.7   -99   -99   -99
    38   -99 0.115 0.188 0.365  0.30   -99  1.52  0.52 22.40  5.52   0.0   0.1   4.7   -99   -99   -99
    45   -99 0.116 0.188 0.363  0.15   -99  1.51  0.48 21.76  6.18   0.0   0.1   4.7   -99   -99   -99
    60   -99 0.116 0.188 0.363  0.00   -99  1.51  0.48 21.76  6.18   0.0   0.1   4.7   -99   -99   -99
    80   -99 0.116 0.188 0.363  0.00   -99  1.51  0.48 21.76  6.18   0.0   0.1   4.7   -99   -99   -99
   100   -99 0.116 0.188 0.363  0.00   -99  1.51  0.48 21.76  6.18   0.0   0.1   4.7   -99   -99   -99

*GOST000012  CNPAF          C    100 NITOSSOLO TESE
@SITE        COUNTRY          LAT     LONG SCS FAMILY
 SP          Brazil            -99     -99 -99
@ SCOM  SALB  SLU1  SLDR  SLRO  SLNF  SLPF  SMHB  SMPX  SMKE
     R  0.14   6.0  0.30  83.0  1.00  0.90  IB00  IB00  IB00
@  SLB  SLMH  SLLL  SDUL  SSAT  SRGF  SSKS  SBDM  SLOC  SLCL  SLSI  SLCF  SLNI  SLHW  SLHB  SCEC  SADC
    12   -99 0.341 0.384 0.599  0.98   -99  1.86  1.62 51.30 20.80   0.0   0.1   4.7   -99   -99   -99
    27   -99 0.320 0.365 0.566  0.70   -99  1.83  1.33 58.80 14.80   0.0   0.1   4.7   -99   -99   -99
    36   -99 0.320 0.365 0.566  0.50   -99  1.83  1.33 58.80 14.80   0.0   0.1   4.7   -99   -99   -99
    53   -99 0.334 0.378 0.594  0.10   -99  1.54  0.58 63.80 20.50   0.0   0.1   4.7   -99   -99   -99
    68   -99 0.334 0.378 0.594  0.00   -99  1.54  0.58 63.80 20.50   0.0   0.1   4.7   -99   -99   -99
    80   -99 0.341 0.386 0.579  0.00   -99  1.64  0.46 66.30 16.60   0.0   0.1   4.7   -99   -99   -99
    98   -99 0.341 0.386 0.579  0.00   -99  1.64  0.46 66.30 16.60   0.0   0.1   4.7   -99   -99   -99
   140   -99 0.299 0.344 0.602  0.00   -99  1.51  0.29 61.30 20.50   0.0   0.1   4.7   -99   -99   -99
   190   -99 0.299 0.344 0.602  0.00   -99  1.51  0.29 61.30 20.50   0.0   0.1   4.7   -99   -99   -99
